*Heading
** Job name: exp2 Model name: Model-1
** Generated by: Abaqus/CAE 2021
*Preprint, echo=NO, model=NO, history=NO, contact=NO
**
** PARTS
**
*Part, name=Face2D
*Node
      1,   172.295731,   -158.11171
      2,   172.295731,  -156.161713
      3,   172.295731,  -153.236725
      4,   172.295731,  -151.286713
      5,   172.295731,  -149.336716
      6,   172.295731,  -146.411728
      7,   172.295731,  -144.461731
      8,   172.295731,  -160.061707
      9,   172.295731,  -142.511734
     10,   171.545807,   -142.44632
     11,   170.480927,  -142.094345
     12,   169.455688,  -141.637863
     13,   167.739243,  -140.627472
     14,   166.084137,  -139.517715
     15,   164.457047,  -138.367203
     16,   162.850433,  -137.188248
     17,   162.054092,  -136.589386
     18,   160.475616,  -135.373032
     19,   158.918655,  -134.129257
     20,   158.150223,  -133.494995
** ... 12936 like lines cut
*Element, type=CPS3
  1,  6386,  5932,  6256
  2, 11580,  6101,  5794
  3, 10890,  4178,  2210
  4,  4078,  3925,  3749
  5,  5362,  5188,  4969
  6,  6146,  6541,  5925
  7,  6382,  6679,  2295
  8,  6655,  6489,  1916
  9,  7715,  7610,  7446
 10, 12374, 12420, 12341
 11, 12136,  8453,  8224
 12, 12698,  9542,  1861
 13,  5300,  5115,   365
 14, 10076,  1816,  9851
 15, 12793, 10466, 10323
 16, 10497, 10463,  1645
 17, 10406, 10369, 10276
 18, 12889, 10447, 10415
 19, 10689, 12935, 10622
 20, 10648, 12908, 10403
** ... 369 like lines cut
*Element, type=CPS4
  390,  2521,  2768,  2756,     8
  391,  5134,  5014,   279,  4903
  392,  4496,  4918, 10997,  4471
  393,   333,  4384,  4511,  4731
  394,   386,  5060,  5253,  5558
  395,  6092,  6016,   492,  5947
  396,  5840,  5689,  6316, 11466
  397,  5900,  5758,  5556,  5695
  398, 11406,  5373,  5512, 11460
  399,   651,  6407,  6287,  5630
  400,  5384,  5122,  5544,   703
  401,  5979,  5845,  6109,   752
  402, 11475,  5883, 11568,   798
  403,  5427,  5006,  5210,  5454
  404,   891, 11840, 11760,  6246
  405,  7414,  7038,  7068,   979
  406,  6868,  6646,  6769,  1065
  407,  1065,  7051,  7072,  7083
  408,  1108,  6822,  7015,  7148
  409,  7231,  7475,  7722,  1151
** ... 12511 like lines cut
*Nset, nset=Set-2, generate
     1,  12956,      1
*Elset, elset=Set-2, generate
     1,  12920,      1
** Section: Section-1
*Solid Section, elset=Set-2, material=Material-1
1.,
*End Part
**  
**
** ASSEMBLY
**
*Assembly, name=Assembly
**  
*Instance, name=Face2D-1, part=Face2D
*End Instance
**  
*Nset, nset=Set-4, instance=Face2D-1
    8,  170,  171,  172,  173,  174,  175,  176,  177,  178,  179,  180,  181,  182,  183,  184
  185,  186,  187,  188,  189,  190,  191,  192,  193,  194,  195,  196,  197,  198,  199,  200
  201,  202,  203,  204,  205,  206,  207,  208,  209,  210,  211,  212,  213,  214,  215,  216
  217,  218,  219,  220,  221,  222,  223, 2699, 2700, 2701, 2702, 2703, 2704, 2705, 2706, 2707
 2708, 2709, 2710, 2711, 2712, 2713, 2714, 2715, 2716, 2717, 2718, 2719, 2720, 2721, 2722, 2723
 2724, 2725, 2726, 2727, 2728, 2729, 2730, 2731, 2732, 2733, 2734, 2735, 2736, 2737, 2738, 2739
 2740, 2741, 2742, 2743, 2744, 2745, 2746, 2747, 2748, 2749, 2750, 2751, 2752, 2753, 2754, 2755
 2756,
*Elset, elset=Set-4, instance=Face2D-1
  390,  492,  567, 1154, 1155, 1157, 1206, 1254, 1300, 1682, 1717, 1750, 1785, 1820, 1853, 1854
 1883, 1914, 1915, 1947, 1977, 1978, 2007, 2036, 2063, 2087, 2111, 2135, 2158, 2182, 2202, 2223
 2224, 2244, 2245, 2264, 2265, 2283, 2284, 2300, 2316, 2332, 2347, 2359, 2372, 2384, 2394, 2402
 2411, 2412, 2418, 2419, 2425, 2426, 2431, 2432, 2436, 2437, 2439, 4878, 4879, 4880, 4881, 4882
 4883, 4884, 4885, 4886, 4887, 4888, 4898, 4918, 5117, 5118, 5123, 5128, 5130, 5132, 5135, 5136
 5137, 5138, 5139, 5140, 5141, 5142, 5145, 5147, 5148, 5149, 5150, 5152, 5154, 5156, 5157, 5158
 5160, 5162, 5164, 5165, 5167, 5174, 5176, 5178, 5180, 5182, 5184, 5185, 5187, 5188, 5189, 5197
*Nset, nset=Set-5, instance=Face2D-1
 170,
*Nset, nset=Set-6, instance=Face2D-1
   64,   65,   66,   67,   68,   69,   70,   71,   72,   73,   74,   75,   76,   77,   78,   79
   80,   81,   82,   83,   84,   85,   86,   87,   88,   89,   90,   91,   92,   93,   94,   95
   96,   97,   98,   99,  100,  101,  102,  103,  104,  105,  106,  107,  108,  109,  110,  111
  112,  113,  114,  115,  116,  117,  118, 2587, 2588, 2589, 2590, 2591, 2592, 2593, 2594, 2595
 2596, 2597, 2598, 2599, 2600, 2601, 2602, 2603, 2604, 2605, 2606, 2607, 2608, 2609, 2610, 2611
 2612, 2613, 2614, 2615, 2616, 2617, 2618, 2619, 2620, 2621, 2622, 2623, 2624, 2625, 2626, 2627
 2628, 2629, 2630, 2631, 2632, 2633, 2634, 2635, 2636, 2637, 2638, 2639, 2640, 2641, 2642, 2643
 2644,
*Elset, elset=Set-6, instance=Face2D-1
  437,  438,  439,  441,  638,  640,  642,  654,  655,  656,  657,  658,  659,  660,  661,  662
  663,  664,  665,  666,  667,  668,  669,  670,  671,  672,  687,  688,  689,  690,  691,  692
 1064, 1077, 1080, 1084, 1090, 1094, 1098, 1102, 1156, 4780, 4781, 4783, 4784, 4785, 4786, 4787
 4789, 4790, 4791, 4792, 4793, 4794, 4795, 4796, 4797, 4798, 4799, 4800, 4801, 4802, 4803, 4804
 4805, 4806, 4807, 4808, 4809, 4811, 4812, 4813, 4817, 4822, 4823, 5040, 5041, 5042, 5043, 5047
 5048, 5049, 5050, 5051, 5052, 5053, 5054, 5055, 5056, 5057, 5058, 5059, 5060, 5061, 5062, 5065
 5067, 5068, 5070, 5072, 5074, 5075, 5076, 5077, 5080, 5082, 5084, 5085, 5086, 5087, 5088, 5092
*End Assembly
** 
** MATERIALS
** 
*Material, name=Material-1
*Elastic
210000., 0.3
*Plastic
400.,  0.
600., 0.1
800.,  1.
** ----------------------------------------------------------------
** 
** STEP: Load
** 
*Step, name=Load, nlgeom=NO, inc=10000
*Static
0.1, 1., 1e-05, 0.1
** 
** BOUNDARY CONDITIONS
** 
** Name: BC-1 Type: Displacement/Rotation
*Boundary
Set-4, 2, 2
** Name: BC-2 Type: Displacement/Rotation
*Boundary
Set-5, 1, 1
** Name: BC-3 Type: Displacement/Rotation
*Boundary
Set-6, 2, 2, 5.
** 
** OUTPUT REQUESTS
** 
*Restart, write, frequency=0
** 
** FIELD OUTPUT: F-Output-1
** 
*Output, field, variable=PRESELECT
** 
** HISTORY OUTPUT: H-Output-1
** 
*Output, history, variable=PRESELECT
*End Step
